/*--------------------------------*- C++ -*----------------------------------*\
| =========                 |                                                 |
| \\      /  F ield         | OpenFOAM: The Open Source CFD Toolbox           |
|  \\    /   O peration     | Version:  v2412                                 |
|   \\  /    A nd           | Website:  www.openfoam.com                      |
|    \\/     M anipulation  |                                                 |
\*---------------------------------------------------------------------------*/
FoamFile
{
    version     2.0;
    format      ascii;
    class       dictionary;
    object      setFieldsDict;
}
// * * * * * * * * * * * * * * * * * * * * * * * * * * * * * * * * * * * * * //

defaultFieldValues
(
    volScalarFieldValue alpha1 0
    volScalarFieldValue alpha2 0
);

regions
(
    boxToCell
    {
        box (0 0 -1) (0.1 0.025 1);
        fieldValues
        (
            volScalarFieldValue alpha1 1
        );
    };
    boxToCell
    {
        box (0 0.025 -1) (0.1 0.05 1);
        fieldValues
        (
            volScalarFieldValue alpha2 1
        );
    }

);


// ************************************************************************* //
